69
Generated from SMILES: [H]/C(F)=C(\C([H])([H])Oc1c([H])c([H])c(-c2nc([H])[n+](C([H])([H])OC([H])([H])C([H])([H])[Si](C([H])([H])[H])(C([H])([H])[H])C([H])([H])[H])n2[H])c([H])c1[H])C([H])([H])N([H])C(=O)OC(C([H])([H])[H])(C([H])([H])[H])C([H])([H])[H]
C 4.028327 -1.818064 -0.569264
F 4.860570 -2.514824 -1.364170
C 4.000915 -0.478733 -0.564253
C 3.040649 0.320350 0.284581
O 2.023570 -0.480464 0.897244
C 0.872405 -0.734440 0.205813
C 0.626776 -0.429346 -1.132733
C -0.596235 -0.773125 -1.719218
C -1.571255 -1.431555 -0.966658
C -2.931606 -1.814012 -1.648398
N -3.245456 -1.504135 -2.973474
C -4.521515 -1.984946 -3.166356
N -5.056612 -2.612629 -2.052060
C -6.374706 -3.185754 -1.865115
O -7.329604 -2.136028 -1.797573
C -7.362932 -1.487655 -0.522968
C -7.306673 0.017355 -0.759553
Si -7.188054 1.080099 0.815723
C -5.584756 0.658647 1.697045
C -8.644440 0.712517 1.930136
C -7.186188 2.888626 0.330718
N -3.993945 -2.496327 -1.023200
C -1.334974 -1.744896 0.370626
C -0.112466 -1.394069 0.949048
C 4.931056 0.312185 -1.441311
N 5.734386 1.194779 -0.637436
C 6.919202 0.811174 -0.086075
O 7.373303 -0.319258 -0.109208
O 7.497565 1.896081 0.476612
C 8.783432 1.786164 1.140957
C 8.700369 0.862030 2.360725
C 9.882674 1.350347 0.165229
C 9.096565 3.210851 1.625023
H 3.419229 -2.485740 0.023131
H 2.598605 1.155209 -0.272743
H 3.604223 0.774582 1.108355
H 1.369019 0.060813 -1.754761
H -0.768410 -0.528689 -2.765726
H -5.126932 -1.909888 -4.056540
H -6.392932 -3.813904 -0.968622
H -6.604039 -3.810393 -2.733978
H -8.298594 -1.771826 -0.028709
H -6.534852 -1.814351 0.117307
H -8.189366 0.329068 -1.330873
H -6.442738 0.253291 -1.393415
H -5.578013 -0.388214 2.013355
H -4.727734 0.821893 1.037467
H -5.457812 1.283890 2.585394
H -8.661957 -0.343153 2.214962
H -8.592422 1.310316 2.844616
H -9.586534 0.943749 1.424966
H -8.113180 3.150611 -0.189295
H -7.098420 3.527333 1.214617
H -6.347315 3.110653 -0.336173
H -4.032408 -2.831186 -0.064669
H -2.070354 -2.255278 0.982634
H 0.083127 -1.638638 1.992141
H 4.352672 0.930201 -2.136379
H 5.590883 -0.328660 -2.036454
H 5.562392 2.189597 -0.628572
H 7.855776 1.139476 3.001218
H 9.618727 0.904853 2.956416
H 8.545829 -0.182415 2.073257
H 9.862171 1.963881 -0.742351
H 9.757486 0.311674 -0.155805
H 10.875414 1.434010 0.620209
H 10.050702 3.257509 2.161275
H 9.141476 3.908494 0.779865
H 8.305935 3.580287 2.289411
