13
Generated from SMILES: C[N+]1=CC=NC1
C -1.729542 -0.304025 -0.075915
N -0.283656 -0.108751 -0.024255
C 0.643503 -0.965867 -0.188037
C 1.946474 -0.289359 -0.041151
N 1.814580 0.969632 0.210072
C 0.348084 1.198222 0.243198
H -1.945700 -1.354485 -0.288352
H -2.150585 -0.022530 0.892302
H -2.135348 0.330268 -0.867719
H 0.540385 -2.033104 -0.402858
H 2.875661 -0.866396 -0.148775
H 0.030408 1.545756 1.230960
H 0.045734 1.900639 -0.539469
