72
Generated from SMILES: [H]C(=O)C([H])(c1c([H])c(N2C([H])([H])C([H])([H])OC([H])([H])C2([H])[H])c(OC([H])([H])[H])c(C(C([H])([H])[H])(C([H])([H])[H])C([H])([H])[H])c1[H])[n+]1cn2nc(OC3([H])C([H])([H])C([H])([H])C([H])([H])C3([H])[H])c([H])c([H])c2n1
C -0.559647 4.208923 0.882340
O 0.294171 4.663383 0.121833
C -0.517796 2.799570 1.445571
C -1.549238 1.871589 0.834056
C -2.083650 0.841405 1.620040
C -2.970141 -0.112408 1.100911
N -3.319761 -1.178578 1.919335
C -4.040732 -0.928793 3.179362
C -4.191169 -2.238138 3.971954
O -4.892134 -3.267799 3.262887
C -4.689620 -3.239693 1.840901
C -3.384095 -2.559553 1.405506
C -3.376188 0.044669 -0.250529
O -4.345848 -0.788749 -0.762495
C -5.643211 -0.405432 -0.292534
C -2.790757 1.008347 -1.115360
C -3.034764 1.024188 -2.650253
C -2.565834 -0.317590 -3.258417
C -2.240423 2.130292 -3.395754
C -4.516215 1.260846 -3.005537
C -1.893669 1.925110 -0.527330
N 0.798918 2.180108 1.252790
C 1.594802 2.182326 0.167496
N 2.645865 1.423147 0.488577
N 3.726133 1.158473 -0.363242
C 4.608015 0.383238 0.209148
O 5.703274 0.102756 -0.534008
C 6.904425 -0.577261 -0.085178
C 8.048640 -0.161665 -1.016800
C 8.240906 -1.312083 -2.009731
C 7.070976 -2.255428 -1.779295
C 6.759119 -2.081332 -0.298934
C 4.556715 -0.235588 1.572228
C 3.514529 0.054771 2.367777
C 2.449414 0.984732 1.773863
N 1.351322 1.425846 2.280461
H -1.434477 4.814067 1.181534
H -0.692797 2.905595 2.523914
H -1.749123 0.728974 2.651354
H -5.034651 -0.522422 2.956830
H -3.509428 -0.201951 3.802172
H -4.736080 -2.052370 4.902916
H -3.205795 -2.634137 4.244888
H -5.555457 -2.737909 1.400356
H -4.705337 -4.276165 1.490025
H -3.261834 -2.628927 0.321404
H -2.538380 -3.105688 1.843108
H -5.921347 0.590387 -0.657684
H -6.364369 -1.127821 -0.689962
H -5.718058 -0.425673 0.796614
H -1.512586 -0.511311 -3.021134
H -2.664286 -0.311652 -4.350408
H -3.145166 -1.172178 -2.894182
H -2.533110 3.131734 -3.059945
H -2.423882 2.090892 -4.476433
H -1.158588 2.019135 -3.258855
H -4.932552 2.104256 -2.442467
H -4.636466 1.482166 -4.072989
H -5.135945 0.379186 -2.820369
H -1.430042 2.691136 -1.144645
H 1.426077 2.679685 -0.779023
H 7.132870 -0.293221 0.945266
H 7.831369 0.775514 -1.538950
H 8.976862 -0.021599 -0.449212
H 9.187442 -1.826719 -1.795703
H 8.285235 -0.958166 -3.044756
H 6.212527 -1.946868 -2.388437
H 7.315500 -3.290245 -2.035439
H 7.499167 -2.622196 0.301330
H 5.761898 -2.462771 -0.060887
H 5.319157 -0.921030 1.907292
H 3.389319 -0.355338 3.360840
