50
Generated from SMILES: [H]/C(F)=C(\C([H])([H])Oc1c([H])c([H])c(-c2nc[n+](C([H])([H])[H])n2[H])c([H])c1[H])C([H])([H])N([H])C(=O)OC(C([H])([H])[H])(C([H])([H])[H])C([H])([H])[H]
C -1.768137 -0.545894 4.339516
F -2.750082 -0.789900 5.226723
C -1.832080 -0.978456 3.074296
C -0.736482 -0.748990 2.060386
O 0.420201 -0.171535 2.671658
C 1.507775 0.032076 1.867174
C 1.583071 -0.246214 0.500651
C 2.767329 -0.004228 -0.205493
C 3.875778 0.521347 0.459460
C 5.217130 0.785003 -0.309719
N 6.358592 1.324207 0.288112
C 7.299406 1.376732 -0.715510
N 6.841327 0.905093 -1.938160
C 7.514162 0.787786 -3.209769
N 5.445660 0.509116 -1.672660
C 3.807247 0.811758 1.822110
C 2.623072 0.565214 2.519434
C -2.993711 -1.798457 2.589195
N -3.832676 -0.990882 1.744416
C -3.705543 -0.928404 0.392828
O -2.825715 -1.478104 -0.251759
O -4.689728 -0.145435 -0.100134
C -4.801595 0.101952 -1.525257
C -6.047179 0.988588 -1.671754
C -5.031093 -1.198438 -2.303102
C -3.584902 0.874649 -2.046530
H -0.972751 0.028493 4.793722
H -1.105676 -0.068883 1.284949
H -0.464866 -1.717233 1.621681
H 0.736838 -0.655466 -0.045952
H 2.791417 -0.234118 -1.265889
H 8.315594 1.731877 -0.645372
H 8.338303 0.076019 -3.113600
H 6.806773 0.429270 -3.961515
H 7.897539 1.766858 -3.506707
H 4.789358 0.108835 -2.338211
H 4.661395 1.222541 2.354894
H 2.567211 0.787232 3.583286
H -3.619075 -2.152008 3.415967
H -2.644601 -2.681385 2.042933
H -4.587645 -0.458011 2.152640
H -6.932801 0.487273 -1.263933
H -5.931546 1.920030 -1.105085
H -6.244832 1.244125 -2.717907
H -5.825538 -1.794884 -1.839979
H -5.307046 -0.996771 -3.343644
H -4.134829 -1.826983 -2.321436
H -3.393646 1.759958 -1.429483
H -2.673169 0.269766 -2.014909
H -3.728237 1.194879 -3.083502
