53
Generated from SMILES: [H]/C(F)=C(\C([H])([H])Oc1c([H])c([H])c(-c2nc[n+](C([H])([H])C([H])([H])[H])n2[H])c([H])c1[H])C([H])([H])N([H])C(=O)OC(C([H])([H])[H])(C([H])([H])[H])C([H])([H])[H]
C -1.341037 -0.548656 2.266308
F -1.582666 -1.842283 2.544428
C -1.512683 -0.037181 1.040941
C -1.193542 1.407524 0.757143
O -0.380885 1.546303 -0.411446
C 0.968517 1.359133 -0.323520
C 1.646066 1.487948 -1.540108
C 3.028987 1.308714 -1.612685
C 3.742865 0.996870 -0.456295
C 5.294893 0.786133 -0.552783
N 6.016660 0.898442 -1.743133
C 7.323306 0.636278 -1.399071
N 7.502195 0.358482 -0.050267
C 8.699151 0.033534 0.699553
C 8.847656 -1.465037 0.863245
N 6.144861 0.459223 0.522040
C 3.080975 0.871150 0.765613
C 1.693177 1.054636 0.828805
C -2.023000 -0.879868 -0.094354
N -3.248912 -0.318599 -0.596022
C -4.479399 -0.716537 -0.174663
O -4.693005 -1.579843 0.659139
O -5.411133 0.009342 -0.833006
C -6.825554 -0.200622 -0.583085
C -7.190328 0.134621 0.867426
C -7.255597 -1.620126 -0.969405
C -7.536950 0.796638 -1.510458
H -0.998087 -0.028381 3.148991
H -2.130689 1.936859 0.546992
H -0.751540 1.933524 1.612046
H 1.086939 1.727336 -2.443137
H 3.528133 1.411773 -2.573644
H 8.183899 0.624492 -2.049737
H 8.625431 0.519726 1.677663
H 9.566101 0.451721 0.177739
H 9.748367 -1.701987 1.437081
H 8.918509 -1.957580 -0.111857
H 7.982980 -1.886459 1.386001
H 5.883338 0.315181 1.493481
H 3.612710 0.630050 1.680209
H 1.211364 0.947360 1.794652
H -2.197790 -1.917698 0.210018
H -1.301654 -0.897018 -0.917616
H -3.231743 0.409404 -1.295080
H -6.797511 1.117945 1.149627
H -8.275740 0.137571 1.014731
H -6.766848 -0.586456 1.573001
H -6.833199 -2.372922 -0.297121
H -8.345152 -1.728553 -0.938443
H -6.908955 -1.870192 -1.978399
H -7.225915 1.824421 -1.289430
H -7.271418 0.612200 -2.558034
H -8.626148 0.736650 -1.414075
