34
Generated from SMILES: [H]C([O-])=C([H])C([H])(N([H])n1cn[n+](C([H])([H])c2c([H])c([H])c([H])c([H])c2[H])c1[H])C([H])([H])[H]
C 4.169368 -0.027527 0.811512
O 4.842900 -0.962053 0.322599
C 3.388350 0.884121 0.204972
C 2.424436 1.793814 0.912886
N 1.527960 1.017613 1.814071
N 0.902826 -0.150161 1.095434
C 1.334833 -1.459033 1.126894
N 0.658602 -2.214992 0.333864
N -0.184750 -1.333901 -0.313935
C -1.005652 -1.815108 -1.404716
C -2.390430 -1.237551 -1.262146
C -3.255467 -1.723242 -0.267932
C -4.528756 -1.176200 -0.110911
C -4.945339 -0.134068 -0.935552
C -4.094252 0.358857 -1.923822
C -2.822529 -0.190478 -2.090645
C -0.007143 -0.079408 0.125505
C 3.139061 2.882557 1.709071
H 4.194298 0.045373 1.899851
H 3.356291 0.880562 -0.881807
H 1.794018 2.283029 0.160931
H 2.139429 0.644561 2.547130
H 2.167744 -1.748726 1.748709
H -0.538501 -1.510709 -2.350166
H -1.052721 -2.910581 -1.397546
H -2.945445 -2.541941 0.381130
H -5.196127 -1.559774 0.658297
H -5.939738 0.292037 -0.813881
H -4.428151 1.171544 -2.567399
H -2.181336 0.207812 -2.874376
H -0.499102 0.809761 -0.239285
H 3.769368 2.462217 2.501108
H 2.421630 3.560256 2.184826
H 3.784325 3.481341 1.055004
