10

C -1.170188 0.358807 0.088018
N -0.079787 -0.451979 -0.449780
C 1.212106 -0.121332 0.147436
C -0.239078 -1.352482 -1.341666
H -2.099903 0.064375 -0.394299
H -1.255734 0.204637 1.165620
H -0.980647 1.416545 -0.105371
H 1.453694 0.927134 -0.038823
H 1.978326 -0.753473 -0.296613
H 1.181211 -0.292232 1.225477
