41

C -4.450686 2.053522 -0.649783
C -5.229708 0.756391 -0.453799
C -4.389600 -0.499164 -0.696586
C -3.286916 -0.680532 0.345558
C -2.530384 -1.992156 0.105173
N -1.452150 -2.147405 1.055963
C -1.538788 -2.887785 2.140322
S -0.176894 -2.859925 3.142956
C 0.599336 -1.759144 2.038022
C 1.861593 -1.184548 2.125942
C 2.265043 -0.333087 1.122839
C 1.430563 -0.055362 0.029086
S 1.884619 1.052339 -1.262125
C 3.642020 1.269453 -1.011029
C 4.499829 0.192971 -1.184787
C 5.861101 0.382837 -1.025573
C 6.357882 1.639041 -0.712351
C 5.493220 2.710486 -0.555997
C 4.128011 2.530562 -0.706050
C 0.165694 -0.625550 -0.060138
C -0.249915 -1.478219 0.952850
H -3.680368 2.174131 0.107611
H -5.122432 2.905754 -0.578208
H -3.982772 2.074280 -1.631641
H -6.069591 0.743892 -1.151556
H -5.643962 0.730272 0.556272
H -3.948526 -0.442321 -1.693283
H -5.051054 -1.367572 -0.673822
H -2.592471 0.156735 0.292915
H -3.732146 -0.692673 1.341612
H -2.109261 -2.000079 -0.901348
H -3.212969 -2.836168 0.207368
H -2.410254 -3.473653 2.373519
H 2.507179 -1.394170 2.962262
H 3.237088 0.129315 1.179395
H 4.105647 -0.779313 -1.438796
H 6.534797 -0.449896 -1.155116
H 7.420976 1.782997 -0.595262
H 5.879335 3.689611 -0.317372
H 3.446507 3.359070 -0.589153
H -0.459597 -0.394935 -0.905253
